Version 4
SHEET 1 2392 1636
WIRE 320 64 -272 64
WIRE -272 128 -272 64
WIRE -144 128 -272 128
WIRE -64 128 -144 128
WIRE 320 128 320 64
WIRE 320 128 272 128
WIRE -272 176 -272 128
WIRE -144 208 -144 128
WIRE -64 208 -144 208
WIRE 336 208 272 208
WIRE 528 208 336 208
WIRE 624 208 528 208
WIRE 784 208 704 208
WIRE 832 208 784 208
WIRE 944 208 832 208
WIRE 1216 208 944 208
WIRE 1344 208 1216 208
WIRE 784 240 784 208
WIRE 1216 240 1216 208
WIRE 528 256 528 208
WIRE 944 256 944 208
WIRE 1344 256 1344 208
WIRE -272 288 -272 256
WIRE -272 288 -416 288
WIRE -112 288 -272 288
WIRE -64 288 -112 288
WIRE 288 288 272 288
WIRE 304 288 288 288
WIRE 384 288 368 288
WIRE -416 336 -416 288
WIRE -272 352 -272 288
WIRE 1216 352 1216 320
WIRE 1344 352 1344 320
WIRE 1344 352 1216 352
WIRE -64 368 -112 368
WIRE 320 368 272 368
WIRE 320 416 320 368
WIRE 944 416 944 336
WIRE 944 416 320 416
WIRE -112 464 -112 368
WIRE 944 464 944 416
WIRE -416 640 -416 416
WIRE -272 640 -272 416
WIRE -272 640 -416 640
WIRE 384 640 384 288
WIRE 384 640 -272 640
WIRE 528 640 528 320
WIRE 528 640 384 640
WIRE 784 640 784 304
WIRE 784 640 528 640
WIRE 944 640 944 544
WIRE 944 640 784 640
WIRE 1216 640 1216 352
WIRE 1216 640 944 640
WIRE 1216 752 1216 640
WIRE 1344 752 1216 752
WIRE 1424 752 1344 752
WIRE 320 928 -272 928
WIRE -272 992 -272 928
WIRE -144 992 -272 992
WIRE -64 992 -144 992
WIRE 320 992 320 928
WIRE 320 992 272 992
WIRE -272 1040 -272 992
WIRE -144 1072 -144 992
WIRE -64 1072 -144 1072
WIRE 528 1072 272 1072
WIRE 624 1072 528 1072
WIRE 784 1072 704 1072
WIRE 944 1072 784 1072
WIRE 1216 1072 944 1072
WIRE 1344 1072 1344 752
WIRE 1344 1072 1216 1072
WIRE 784 1104 784 1072
WIRE 1216 1104 1216 1072
WIRE 528 1120 528 1072
WIRE 944 1120 944 1072
WIRE 1344 1120 1344 1072
WIRE -272 1152 -272 1120
WIRE -272 1152 -416 1152
WIRE -64 1152 -272 1152
WIRE 304 1152 272 1152
WIRE 384 1152 368 1152
WIRE -272 1216 -272 1152
WIRE 1216 1216 1216 1184
WIRE 1344 1216 1344 1184
WIRE 1344 1216 1216 1216
WIRE -64 1232 -112 1232
WIRE 320 1232 272 1232
WIRE 320 1280 320 1232
WIRE 944 1280 944 1200
WIRE 944 1280 320 1280
WIRE 944 1328 944 1280
WIRE -272 1504 -272 1280
WIRE -112 1504 -112 1232
WIRE -112 1504 -272 1504
WIRE 384 1504 384 1152
WIRE 384 1504 -112 1504
WIRE 528 1504 528 1184
WIRE 528 1504 384 1504
WIRE 784 1504 784 1168
WIRE 784 1504 528 1504
WIRE 944 1504 944 1408
WIRE 944 1504 784 1504
WIRE 1216 1504 1216 1216
WIRE 1216 1504 944 1504
WIRE 1216 1616 1216 1504
WIRE 1424 1616 1216 1616
FLAG 832 208 Vo
FLAG 288 288 ct
FLAG 336 208 swe
FLAG -112 288 vdd
FLAG 320 368 cinv
FLAG 320 64 swc
FLAG 1344 208 VCC
FLAG 1424 752 0
FLAG -416 288 VIN
FLAG -416 1152 VIN
FLAG -112 464 0
SYMBOL voltage -416 320 R0
WINDOW 123 0 0 Left 0
WINDOW 39 24 132 Left 0
SYMATTR SpiceLine Rser=0.3
SYMATTR InstName V1
SYMATTR Value 12
SYMBOL res -256 272 R180
WINDOW 0 -39 87 Left 0
WINDOW 3 -52 44 Left 0
SYMATTR InstName R1
SYMATTR Value 0.33
SYMBOL cap 304 304 R270
WINDOW 0 32 32 VTop 0
WINDOW 3 0 32 VBottom 0
SYMATTR InstName C2
SYMATTR Value 470p
SYMBOL schottky 544 320 R180
WINDOW 0 -34 67 Left 0
WINDOW 3 -86 3 Left 0
SYMATTR InstName D1
SYMATTR Value 1N5819
SYMATTR Description Diode
SYMATTR Type diode
SYMBOL ind2 608 224 R270
WINDOW 0 32 56 VTop 0
WINDOW 3 4 56 VBottom 0
SYMATTR InstName L1
SYMATTR Value 220µ
SYMATTR SpiceLine Rser=0.5
SYMATTR Type ind
SYMBOL res 928 240 R0
SYMATTR InstName R2
SYMATTR Value 6K
SYMBOL res 928 448 R0
SYMATTR InstName R3
SYMATTR Value 2K
SYMBOL res 1200 224 R0
SYMATTR InstName R4
SYMATTR Value 300
SYMBOL polcap 768 240 R0
WINDOW 39 24 113 Left 0
WINDOW 40 24 85 Left 0
SYMATTR SpiceLine Rser=0.1
SYMATTR SpiceLine2 IC=0
SYMATTR InstName C3
SYMATTR Value 220µ
SYMBOL polcap -288 352 R0
WINDOW 39 24 113 Left 0
WINDOW 40 24 85 Left 0
SYMATTR SpiceLine Rser=0.1
SYMATTR SpiceLine2 IC=25
SYMATTR InstName C1
SYMATTR Value 220µ
SYMBOL mc34063 176 224 R0
SYMATTR InstName U1
SYMBOL cap 1328 256 R0
SYMATTR InstName C4
SYMATTR Value 220µF
SYMBOL res -256 1136 R180
WINDOW 0 -39 87 Left 0
WINDOW 3 -52 44 Left 0
SYMATTR InstName R5
SYMATTR Value 0.33
SYMBOL cap 304 1168 R270
WINDOW 0 32 32 VTop 0
WINDOW 3 0 32 VBottom 0
SYMATTR InstName C5
SYMATTR Value 470p
SYMBOL schottky 544 1184 R180
WINDOW 0 -34 67 Left 0
WINDOW 3 -86 3 Left 0
SYMATTR InstName D2
SYMATTR Value 1N5819
SYMATTR Description Diode
SYMATTR Type diode
SYMBOL ind2 608 1088 R270
WINDOW 0 32 56 VTop 0
WINDOW 3 4 56 VBottom 0
SYMATTR InstName L2
SYMATTR Value 220µ
SYMATTR SpiceLine Rser=0.5
SYMATTR Type ind
SYMBOL res 928 1104 R0
SYMATTR InstName R6
SYMATTR Value 6K
SYMBOL res 928 1312 R0
SYMATTR InstName R7
SYMATTR Value 2K
SYMBOL res 1200 1088 R0
SYMATTR InstName R8
SYMATTR Value 300
SYMBOL polcap 768 1104 R0
WINDOW 39 24 113 Left 0
WINDOW 40 24 85 Left 0
SYMATTR SpiceLine Rser=0.1
SYMATTR SpiceLine2 IC=0
SYMATTR InstName C6
SYMATTR Value 220µ
SYMBOL polcap -288 1216 R0
WINDOW 39 24 113 Left 0
WINDOW 40 24 85 Left 0
SYMATTR SpiceLine Rser=0.1
SYMATTR SpiceLine2 IC=25
SYMATTR InstName C7
SYMATTR Value 220µ
SYMBOL mc34063 176 1088 R0
SYMATTR InstName U2
SYMBOL cap 1328 1120 R0
SYMATTR InstName C8
SYMATTR Value 220µF
TEXT -368 -24 Left 0 !.tran 0 0.01 1u 100n uic
TEXT -368 -72 Left 0 !.inc MC34063.lib
TEXT -368 16 Left 0 !.options Gmin=1e-9  method=Gear
TEXT -368 -936 Left 0 ;A DC/DC BUCK CONVERTER WITH A MOTOROLA MC34063\nTest circuit and models from Helmut Sennewald    03/14/2004\nThe symbol is from Drew.\n \nDon't remove this copyright notice.\nThe used models are property of ONSEMI and/or  Intusoft(www.intusoft.com).\nThey are from ONsemi's webpage and also from the Intusoft's SPICE (ICAP/4 demo 8.3.10).\nThe links are www.onsemi.com and www.intusoft.com .\n \n \nThree of the models have been modified to LTSPICE syntax.\nThe PSPICE model runs without** any modifiacation in LTSPICE.\nSo we have now three models available for the 34063 and one model for the MC33063. \nThe MC34063 model and the MC34063p model have the closest match, but I don't\nknow if they best match the real part.\n \n    MC34063   (modified* original model included in ICAP/4 demo)\n    MC34063p  (original ONsemi PSPICE model) **\n    MC34063a  (modified* original ONsemi model for ICAP/4 demo)\n    MC33063    (modified* original ONsemi model for ICAP/4 demo) \n \n   *   Means syntax of IF-THEN-ELSE statement adapted to LTSPICE\n       All SPICE command lines starting with a comment "*" have been \n       changed to be compatible with LTSPICE. \n      \n   ** This has been possible without modification, because no SW(itch) statement \n       has been used.  VT and VH of SW are defined differently in PSPICE.\n \nSet the initial conditions of the capacitors C1 and C3 accordingly to your simulation needs.\nThese are the IC=...  properties of the filter capacitors in the schematic.
